%%%%%%%%%%%%%%%%%%%%%%%%%%%%%%%%%%%%%%%%%%%%%%%%%%%%%%%%%%%%%%%%%%%%%%%%%%%%%%%%
%                                                                              %
% SU2 configuration file                                                       %
% Case description: Subsonic inviscid flow around a NACA 0012                  %
% Author: Harsh Patel                                                          %
% Institution: Stanford University                                             %
% Date: 26 JAN 2023                                                            %
% File Version 7.5.0 "Blackbird"                                               %
%                                                                              %
%%%%%%%%%%%%%%%%%%%%%%%%%%%%%%%%%%%%%%%%%%%%%%%%%%%%%%%%%%%%%%%%%%%%%%%%%%%%%%%%

%------------- DIRECT, ADJOINT, AND LINEARIZED PROBLEM DEFINITION ------------%
SOLVER = EULER
MATH_PROBLEM = DIRECT
RESTART_SOL = NO

%----------- COMPRESSIBLE AND INCOMPRESSIBLE FREE-STREAM DEFINITION ----------%
MACH_NUMBER = 0.15
AOA = 10.0
FREESTREAM_PRESSURE = 101325.0
FREESTREAM_TEMPERATURE = 288.15

%---------------------- REFERENCE VALUE DEFINITION ---------------------------%
REF_ORIGIN_MOMENT_X = 0.25
REF_ORIGIN_MOMENT_Y = 0.00
REF_ORIGIN_MOMENT_Z = 0.00
REF_LENGTH = 1.0
REF_AREA = 1.0
REF_DIMENSIONALIZATION = FREESTREAM_PRESS_EQ_ONE

%----------------------- BOUNDARY CONDITION DEFINITION -----------------------%
MARKER_EULER = ( AIRFOIL )
MARKER_FAR = ( FARFIELD )
MARKER_DEFORM_MESH = ( AIRFOIL )

%------------------------ SURFACES IDENTIFICATION ----------------------------%
MARKER_PLOTTING = ( AIRFOIL )
MARKER_MONITORING = ( AIRFOIL )
MARKER_DESIGNING = ( AIRFOIL )

%------------- COMMON PARAMETERS TO DEFINE THE NUMERICAL METHOD --------------%
NUM_METHOD_GRAD = WEIGHTED_LEAST_SQUARES
OBJECTIVE_FUNCTION = DRAG
CFL_NUMBER = 5.0
CFL_ADAPT = NO
CFL_ADAPT_PARAM = ( 1.5, 0.5, 1.0, 100.0 )
ITER = 500

%------------------------ LINEAR SOLVER DEFINITION ---------------------------%
LINEAR_SOLVER = FGMRES
LINEAR_SOLVER_PREC = LU_SGS
LINEAR_SOLVER_ERROR = 1E-6
LINEAR_SOLVER_ITER = 5

%-------------------------- MULTIGRID PARAMETERS -----------------------------%
MGLEVEL = 3
MGCYCLE = W_CYCLE
MG_PRE_SMOOTH = ( 1, 2, 3, 3 )
MG_POST_SMOOTH = ( 0, 0, 0, 0 )
MG_CORRECTION_SMOOTH = ( 0, 0, 0, 0 )
MG_DAMP_RESTRICTION = 1.0
MG_DAMP_PROLONGATION = 1.0

%-------------------- FLOW NUMERICAL METHOD DEFINITION -----------------------%
CONV_NUM_METHOD_FLOW = JST
MUSCL_FLOW = YES
SLOPE_LIMITER_FLOW = VENKATAKRISHNAN
JST_SENSOR_COEFF = ( 0.5, 0.02 )
TIME_DISCRE_FLOW = EULER_IMPLICIT

%---------------- ADJOINT-FLOW NUMERICAL METHOD DEFINITION -------------------%
CONV_NUM_METHOD_ADJFLOW = JST
MUSCL_ADJFLOW = YES
SLOPE_LIMITER_ADJFLOW = NONE
ADJ_JST_SENSOR_COEFF = ( 0.5, 0.02 )
CFL_REDUCTION_ADJFLOW = 0.5
TIME_DISCRE_ADJFLOW = EULER_IMPLICIT

%------------------------ GRID DEFORMATION PARAMETERS ------------------------%
DEFORM_NONLINEAR_ITER = 1
DEFORM_LINEAR_SOLVER = FGMRES
DEFORM_LINEAR_SOLVER_PREC = ILU
DEFORM_LINEAR_SOLVER_ITER = 500
DEFORM_LINEAR_SOLVER_ERROR = 1E-8

DEFORM_CONSOLE_OUTPUT = YES
DEFORM_COEFF = 1E6
DEFORM_STIFFNESS_TYPE = INVERSE_VOLUME
DEFORM_LIMIT = 1E6

%----------------------- DESIGN VARIABLE PARAMETERS --------------------------%
DV_KIND = FFD_SETTING
DV_MARKER = ( AIRFOIL )
DV_PARAM = ( 1.0 )
DV_VALUE = 0.01
DEFINITION_DV = ( 19, 1.0 | AIRFOIL | AIRFOIL_BOX, 0, 0, 0.0, 1.0 ); ( 19, 1.0 | AIRFOIL | AIRFOIL_BOX, 1, 0, 0.0, 1.0 ); ( 19, 1.0 | AIRFOIL | AIRFOIL_BOX, 2, 0, 0.0, 1.0 ); ( 19, 1.0 | AIRFOIL | AIRFOIL_BOX, 3, 0, 0.0, 1.0 ); ( 19, 1.0 | AIRFOIL | AIRFOIL_BOX, 4, 0, 0.0, 1.0 ); ( 19, 1.0 | AIRFOIL | AIRFOIL_BOX, 5, 0, 0.0, 1.0 ); ( 19, 1.0 | AIRFOIL | AIRFOIL_BOX, 6, 0, 0.0, 1.0 ); ( 19, 1.0 | AIRFOIL | AIRFOIL_BOX, 7, 0, 0.0, 1.0 ); ( 19, 1.0 | AIRFOIL | AIRFOIL_BOX, 8, 0, 0.0, 1.0 ); ( 19, 1.0 | AIRFOIL | AIRFOIL_BOX, 0, 1, 0.0, 1.0 ); ( 19, 1.0 | AIRFOIL | AIRFOIL_BOX, 1, 1, 0.0, 1.0 ); ( 19, 1.0 | AIRFOIL | AIRFOIL_BOX, 2, 1, 0.0, 1.0 ); ( 19, 1.0 | AIRFOIL | AIRFOIL_BOX, 3, 1, 0.0, 1.0 ); ( 19, 1.0 | AIRFOIL | AIRFOIL_BOX, 4, 1, 0.0, 1.0 ); ( 19, 1.0 | AIRFOIL | AIRFOIL_BOX, 5, 1, 0.0, 1.0 ); ( 19, 1.0 | AIRFOIL | AIRFOIL_BOX, 6, 1, 0.0, 1.0 ); ( 19, 1.0 | AIRFOIL | AIRFOIL_BOX, 7, 1, 0.0, 1.0 ); ( 19, 1.0 | AIRFOIL | AIRFOIL_BOX, 8, 1, 0.0, 1.0 )

%-------------------- FREE-FORM DEFORMATION PARAMETERS -----------------------%
FFD_TOLERANCE = 1E-10
FFD_ITERATIONS = 1000
FFD_DEFINITION = (AIRFOIL_BOX, -0.05, -0.15, 0.0, 1.05, -0.15, 0.0, 1.05, 0.15, 0.0, -0.05, 0.15, 0.0, 0.0, 0.0, 0.0, 0.0, 0.0, 0.0, 0.0, 0.0, 0.0, 0.0, 0.0, 0.0)
FFD_DEGREE = (8, 1, 0)
FFD_CONTINUITY = 2ND_DERIVATIVE
FFD_COORD_SYSTEM = CARTESIAN
FFD_AXIS = (0.0, 0.0, 0.0)
FFD_BLENDING = BEZIER

%--------------------------- CONVERGENCE PARAMETERS --------------------------%
CONV_RESIDUAL_MINVAL = -8
CONV_STARTITER = 10
CONV_CAUCHY_ELEMS = 100
CONV_CAUCHY_EPS = 1E-6

%------------------------- INPUT/OUTPUT INFORMATION --------------------------%
MESH_FILENAME = ../data/NACA0012/mesh.su2
MESH_FORMAT = SU2
MESH_OUT_FILENAME = mesh_out.su2
SOLUTION_FILENAME = solution_flow.dat
SOLUTION_ADJ_FILENAME = solution_adj.dat
TABULAR_FORMAT = TECPLOT
OUTPUT_FILES = (RESTART, TECPLOT, SURFACE_TECPLOT_ASCII)
CONV_FILENAME = history
RESTART_FILENAME = restart_flow.dat
RESTART_ADJ_FILENAME = restart_adj.dat
VOLUME_FILENAME = flow
VOLUME_ADJ_FILENAME = adjoint
GRAD_OBJFUNC_FILENAME = of_grad.dat
SURFACE_FILENAME = surface_flow
SURFACE_ADJ_FILENAME = surface_adjoint
SCREEN_OUTPUT = (INNER_ITER, RMS_DENSITY, RMS_ENERGY, LIFT, DRAG)
VOLUME_OUTPUT = (COORDINATES, SOLUTION, PRIMITIVE)
WRT_FORCES_BREAKDOWN = YES
BREAKDOWN_FILENAME = forces_breakdown.dat
