%%%%%%%%%%%%%%%%%%%%%%%%%%%%%%%%%%%%%%%%%%%%%%%%%%%%%%%%%%%%%%%%%%%%%%%%%%%%%%%%
%                                                                              %
% SU2 configuration file                                                       %
% Case description: Subsonic NACA 0012 with RANS and Spalart-Allmaras model    %
% Author: Harsh Patel                                                          %
% Institution: Stanford University                                             %
% Date: 26 JAN 2023                                                            %
% File Version 7.5.0 "Blackbird"                                               %
%                                                                              %
%%%%%%%%%%%%%%%%%%%%%%%%%%%%%%%%%%%%%%%%%%%%%%%%%%%%%%%%%%%%%%%%%%%%%%%%%%%%%%%%

%------------- DIRECT, ADJOINT, AND LINEARIZED PROBLEM DEFINITION ------------%
SOLVER = RANS
KIND_TURB_MODEL = SA
MATH_PROBLEM = DIRECT
RESTART_SOL = NO

%-------------------- COMPRESSIBLE FREE-STREAM DEFINITION --------------------%
MACH_NUMBER = 0.15
AOA = 10.0
FREESTREAM_TEMPERATURE = 300.0
REYNOLDS_NUMBER = 6.0E6
REYNOLDS_LENGTH = 1.0

%---------------------- REFERENCE VALUE DEFINITION ---------------------------%
REF_ORIGIN_MOMENT_X = 0.25
REF_ORIGIN_MOMENT_Y = 0.00
REF_ORIGIN_MOMENT_Z = 0.00
REF_LENGTH = 1.0
REF_AREA = 1.0
REF_DIMENSIONALIZATION = FREESTREAM_PRESS_EQ_ONE

%-------------------- BOUNDARY CONDITION DEFINITION --------------------------%
MARKER_HEATFLUX = ( AIRFOIL, 0.0 )
MARKER_FAR = ( FARFIELD )
MARKER_DEFORM_MESH = ( AIRFOIL )

%------------------------ SURFACES IDENTIFICATION ----------------------------%
MARKER_PLOTTING = ( AIRFOIL )
MARKER_MONITORING = ( AIRFOIL )
MARKER_DESIGNING = ( AIRFOIL )

%------------- COMMON PARAMETERS DEFINING THE NUMERICAL METHOD ---------------%
NUM_METHOD_GRAD = WEIGHTED_LEAST_SQUARES
NUM_METHOD_GRAD_RECON = LEAST_SQUARES
CFL_NUMBER = 1000.0
MAX_DELTA_TIME = 1E10
CFL_ADAPT = NO
CFL_ADAPT_PARAM = ( 1.5, 0.5, 1.0, 100.0 )
ITER = 99999

%----------------------- SLOPE LIMITER DEFINITION ----------------------------%
VENKAT_LIMITER_COEFF = 0.03
LIMITER_ITER = 99999

%------------------------ LINEAR SOLVER DEFINITION ---------------------------%
LINEAR_SOLVER = FGMRES
LINEAR_SOLVER_PREC = ILU
LINEAR_SOLVER_ERROR = 1E-10
LINEAR_SOLVER_ITER = 20

%-------------------- FLOW NUMERICAL METHOD DEFINITION -----------------------%
CONV_NUM_METHOD_FLOW = ROE
MUSCL_FLOW = YES
SLOPE_LIMITER_FLOW = NONE
JST_SENSOR_COEFF = ( 0.5, 0.02 )
TIME_DISCRE_FLOW = EULER_IMPLICIT

%-------------------- TURBULENT NUMERICAL METHOD DEFINITION ------------------%
CONV_NUM_METHOD_TURB = SCALAR_UPWIND
MUSCL_TURB = YES
SLOPE_LIMITER_TURB = NONE
TIME_DISCRE_TURB = EULER_IMPLICIT
CFL_REDUCTION_TURB = 1.0

%--------------------------- CONVERGENCE PARAMETERS --------------------------%
CONV_RESIDUAL_MINVAL = -12
CONV_STARTITER = 10
CONV_CAUCHY_ELEMS = 100
CONV_CAUCHY_EPS = 1E-6

%------------------------ GRID DEFORMATION PARAMETERS ------------------------%
DEFORM_NONLINEAR_ITER = 1
DEFORM_LINEAR_SOLVER = FGMRES
DEFORM_LINEAR_SOLVER_PREC = ILU
DEFORM_LINEAR_SOLVER_ITER = 500
DEFORM_LINEAR_SOLVER_ERROR = 1E-8

DEFORM_CONSOLE_OUTPUT = YES
DEFORM_COEFF = 1E6
DEFORM_STIFFNESS_TYPE = INVERSE_VOLUME
DEFORM_LIMIT = 1E6

%----------------------- DESIGN VARIABLE PARAMETERS --------------------------%
DV_KIND = FFD_SETTING
DV_MARKER = ( AIRFOIL )
DV_PARAM = ( 1.0 )
DV_VALUE = 0.01
DEFINITION_DV = ( 19, 1.0 | AIRFOIL | AIRFOIL_BOX, 0, 0, 0.0, 1.0 ); ( 19, 1.0 | AIRFOIL | AIRFOIL_BOX, 1, 0, 0.0, 1.0 ); ( 19, 1.0 | AIRFOIL | AIRFOIL_BOX, 2, 0, 0.0, 1.0 ); ( 19, 1.0 | AIRFOIL | AIRFOIL_BOX, 3, 0, 0.0, 1.0 ); ( 19, 1.0 | AIRFOIL | AIRFOIL_BOX, 4, 0, 0.0, 1.0 ); ( 19, 1.0 | AIRFOIL | AIRFOIL_BOX, 5, 0, 0.0, 1.0 ); ( 19, 1.0 | AIRFOIL | AIRFOIL_BOX, 6, 0, 0.0, 1.0 ); ( 19, 1.0 | AIRFOIL | AIRFOIL_BOX, 7, 0, 0.0, 1.0 ); ( 19, 1.0 | AIRFOIL | AIRFOIL_BOX, 8, 0, 0.0, 1.0 ); ( 19, 1.0 | AIRFOIL | AIRFOIL_BOX, 0, 1, 0.0, 1.0 ); ( 19, 1.0 | AIRFOIL | AIRFOIL_BOX, 1, 1, 0.0, 1.0 ); ( 19, 1.0 | AIRFOIL | AIRFOIL_BOX, 2, 1, 0.0, 1.0 ); ( 19, 1.0 | AIRFOIL | AIRFOIL_BOX, 3, 1, 0.0, 1.0 ); ( 19, 1.0 | AIRFOIL | AIRFOIL_BOX, 4, 1, 0.0, 1.0 ); ( 19, 1.0 | AIRFOIL | AIRFOIL_BOX, 5, 1, 0.0, 1.0 ); ( 19, 1.0 | AIRFOIL | AIRFOIL_BOX, 6, 1, 0.0, 1.0 ); ( 19, 1.0 | AIRFOIL | AIRFOIL_BOX, 7, 1, 0.0, 1.0 ); ( 19, 1.0 | AIRFOIL | AIRFOIL_BOX, 8, 1, 0.0, 1.0 )

%-------------------- FREE-FORM DEFORMATION PARAMETERS -----------------------%
FFD_TOLERANCE = 1E-10
FFD_ITERATIONS = 1000
FFD_DEFINITION = (AIRFOIL_BOX, -0.05, -0.15, 0.0, 1.05, -0.15, 0.0, 1.05, 0.15, 0.0, -0.05, 0.15, 0.0, 0.0, 0.0, 0.0, 0.0, 0.0, 0.0, 0.0, 0.0, 0.0, 0.0, 0.0, 0.0)
FFD_DEGREE = (8, 1, 0)
FFD_CONTINUITY = 2ND_DERIVATIVE
FFD_COORD_SYSTEM = CARTESIAN
FFD_AXIS = (0.0, 0.0, 0.0)
FFD_BLENDING = BEZIER

%------------------------- INPUT/OUTPUT INFORMATION --------------------------%
MESH_FILENAME = ../data/NACA0012/mesh.su2
MESH_FORMAT = SU2
MESH_OUT_FILENAME = mesh_out.su2
SOLUTION_FILENAME = solution_flow.dat
SOLUTION_ADJ_FILENAME = solution_adj.dat
TABULAR_FORMAT = TECPLOT
OUTPUT_FILES = (RESTART, TECPLOT, SURFACE_TECPLOT)
CONV_FILENAME = history
RESTART_FILENAME = restart_flow.dat
RESTART_ADJ_FILENAME = restart_adj.dat
VOLUME_FILENAME = flow
VOLUME_ADJ_FILENAME = adjoint
GRAD_OBJFUNC_FILENAME = of_grad.dat
SURFACE_FILENAME = surface_flow
SURFACE_ADJ_FILENAME = surface_adjoint
OUTPUT_WRT_FREQ = 10000
SCREEN_OUTPUT = (INNER_ITER, RMS_DENSITY, RMS_NU_TILDE, LIFT, DRAG, LINSOL_ITER, LINSOL_RESIDUAL, LINSOL_ITER_TURB, LINSOL_RESIDUAL_TURB, TOTAL_HEATFLUX)
VOLUME_OUTPUT = (COORDINATES, SOLUTION, PRIMITIVE)
